


 35 37  0  0  0  0  0  0  0  0999 V2000
  -13.1374   -8.9297   -9.2278 C   0  0  0  0  0  0  0  0  0  0  0  0
  -14.2957   -9.0829   -8.4338 O   0  0  0  0  0  0  0  0  0  0  0  0
  -13.9043   -8.9810   -7.0838 C   0  0  0  0  0  0  0  0  0  0  0  0
  -12.6040   -8.1886   -7.0280 C   0  0  0  0  0  0  0  0  0  0  0  0
  -11.8158   -8.5654   -5.9287 O   0  0  0  0  0  0  0  0  0  0  0  0
  -11.9480   -8.5492   -8.3403 C   0  0  0  0  0  0  0  0  0  0  0  0
  -11.0957   -9.6592   -8.1940 O   0  0  0  0  0  0  0  0  0  0  0  0
  -12.2025   -8.1137   -5.1339 H   0  0  0  0  0  0  0  0  0  0  0  0
  -10.2152   -9.3076   -7.8993 H   0  0  0  0  0  0  0  0  0  0  0  0
  -14.6846   -5.4266  -13.9685 N   0  0  0  0  0  0  0  0  0  0  0  0
  -14.5661   -6.6905  -13.3153 C   0  0  0  0  0  0  0  0  0  0  0  0
  -14.9699   -7.8361  -13.9415 N   0  0  0  0  0  0  0  0  0  0  0  0
  -14.8567   -9.0603  -13.3325 C   0  0  0  0  0  0  0  0  0  0  0  0
  -14.3277   -9.1632  -12.0763 N   0  0  0  0  0  0  0  0  0  0  0  0
  -13.9265   -8.0270  -11.4596 C   0  0  0  0  0  0  0  0  0  0  0  0
  -14.0278   -6.8084  -12.0380 C   0  0  0  0  0  0  0  0  0  0  0  0
  -13.5566   -5.8530  -11.2162 N   0  0  0  0  0  0  0  0  0  0  0  0
  -13.1672   -6.5644  -10.1211 C   0  0  0  0  0  0  0  0  0  0  0  0
  -13.3677   -7.9027  -10.2475 N   0  0  0  0  0  0  0  0  0  0  0  0
  -14.3648   -4.5474  -13.5013 H   0  0  0  0  0  0  0  0  0  0  0  0
  -15.1052   -5.3673  -14.9234 H   0  0  0  0  0  0  0  0  0  0  0  0
  -15.0171   -8.3187   -6.2663 C   0  0  0  0  0  0  0  0  0  0  0  0
  -14.7767   -8.5394   -4.8960 O   0  0  0  0  0  0  0  0  0  0  0  0
  -15.5667   -7.3198   -4.0021 P   0  0  0  0  0  0  0  0  0  0  0  0
  -15.2091   -5.9623   -4.5645 O   0  0  0  0  0  0  0  0  0  0  0  0
  -15.0359   -7.3849   -2.3964 O   0  0  0  0  0  0  0  0  0  0  0  0
  -17.2576   -7.5159   -4.0821 O   0  0  0  0  0  0  0  0  0  0  0  0
  -17.6671   -8.8769   -3.1438 P   0  0  0  0  0  0  0  0  0  0  0  0
  -17.7274   -8.4790   -1.6853 O   0  0  0  0  0  0  0  0  0  0  0  0
  -19.2002   -9.4009   -3.6330 O   0  0  0  0  0  0  0  0  0  0  0  0
  -16.5190  -10.1168   -3.3735 O   0  0  0  0  0  0  0  0  0  0  0  0
  -16.4048  -11.0290   -1.9360 P   0  0  0  0  0  0  0  0  0  0  0  0
  -15.3088  -12.2900   -2.2001 O   0  0  0  0  0  0  0  0  0  0  0  0
  -15.8442  -10.1023   -0.6329 O   0  0  0  0  0  0  0  0  0  0  0  0
  -17.9409  -11.7130   -1.5347 S   0  0  0  0  0  0  0  0  0  0  0  0
 10 11  1  0  0  0
 10 20  1  0  0  0
 10 21  1  0  0  0
 11 12  2  0  0  0
 11 16  1  0  0  0
 12 13  1  0  0  0
 13 14  2  0  0  0
 14 15  1  0  0  0
 15 16  2  0  0  0
 15 19  1  0  0  0
 16 17  1  0  0  0
 17 18  2  0  0  0
 18 19  1  0  0  0
 19  1  1  0  0  0
  1  2  1  0  0  0
  1  6  1  0  0  0
  2  3  1  0  0  0
  3 22  1  0  0  0
  3  4  1  0  0  0
 22 23  1  0  0  0
 23 24  1  0  0  0
 24 25  2  0  0  0
 24 26  1  0  0  0
 24 27  1  0  0  0
 27 28  1  0  0  0
 28 29  2  0  0  0
 28 30  1  0  0  0
 28 31  1  0  0  0
 31 32  1  0  0  0
 32 33  1  0  0  0
 32 34  1  0  0  0
 32 35  2  0  0  0
  4  5  1  0  0  0
  4  6  1  0  0  0
  5  8  1  0  0  0
  6  7  1  0  0  0
  7  9  1  0  0  0
M  CHG 1  26  -1
M  CHG 1  30  -1
M  CHG 1  33  -1
M  CHG 1  34  -1
M  END
> <COMPND>
    ../0-casp/DBelp1.pdb 

> <AUTHOR>
    GENERATED BY OPEN BABEL 3.1.0

> <MASTER>
        0    0    0    0    0    0    0    0   43    0   43    0

> <minimizedAffinity>
-5.92447

> <CNNscore>
0.4719268680

> <CNNaffinity>
4.5561494827

> <CNN_VS>
2.1501693726

> <CNNaffinity_variance>
0.3634629250

$$$$



 35 37  0  0  0  0  0  0  0  0999 V2000
   15.1445  -34.4813    8.7260 C   0  0  0  0  0  0  0  0  0  0  0  0
   13.9473  -34.7808    8.0383 O   0  0  0  0  0  0  0  0  0  0  0  0
   13.7399  -36.1719    8.1284 C   0  0  0  0  0  0  0  0  0  0  0  0
   14.4849  -36.6815    9.3560 C   0  0  0  0  0  0  0  0  0  0  0  0
   14.8962  -38.0143    9.1948 O   0  0  0  0  0  0  0  0  0  0  0  0
   15.6604  -35.7360    9.4377 C   0  0  0  0  0  0  0  0  0  0  0  0
   16.7726  -36.2472    8.7437 O   0  0  0  0  0  0  0  0  0  0  0  0
   14.0980  -38.5801    9.3622 H   0  0  0  0  0  0  0  0  0  0  0  0
   17.2584  -36.8383    9.3765 H   0  0  0  0  0  0  0  0  0  0  0  0
   13.9661  -29.3872   11.8566 N   0  0  0  0  0  0  0  0  0  0  0  0
   14.2680  -30.0894   10.6508 C   0  0  0  0  0  0  0  0  0  0  0  0
   14.3955  -29.4157    9.4686 N   0  0  0  0  0  0  0  0  0  0  0  0
   14.6929  -30.0725    8.3014 C   0  0  0  0  0  0  0  0  0  0  0  0
   14.8751  -31.4272    8.2955 N   0  0  0  0  0  0  0  0  0  0  0  0
   14.7504  -32.0914    9.4683 C   0  0  0  0  0  0  0  0  0  0  0  0
   14.4575  -31.4673   10.6322 C   0  0  0  0  0  0  0  0  0  0  0  0
   14.3951  -32.3535   11.6426 N   0  0  0  0  0  0  0  0  0  0  0  0
   14.6684  -33.5357   11.0222 C   0  0  0  0  0  0  0  0  0  0  0  0
   14.9059  -33.4041    9.6905 N   0  0  0  0  0  0  0  0  0  0  0  0
   13.8808  -29.8940   12.7674 H   0  0  0  0  0  0  0  0  0  0  0  0
   13.8160  -28.3531   11.8377 H   0  0  0  0  0  0  0  0  0  0  0  0
   12.2399  -36.4724    8.1996 C   0  0  0  0  0  0  0  0  0  0  0  0
   11.8293  -37.0607    6.9874 O   0  0  0  0  0  0  0  0  0  0  0  0
   10.2911  -37.7618    7.2171 P   0  0  0  0  0  0  0  0  0  0  0  0
    9.4328  -36.8445    8.0591 O   0  0  0  0  0  0  0  0  0  0  0  0
   10.4734  -39.2260    8.0462 O   0  0  0  0  0  0  0  0  0  0  0  0
    9.5159  -38.0137    5.7205 O   0  0  0  0  0  0  0  0  0  0  0  0
   10.7014  -38.4952    4.5967 P   0  0  0  0  0  0  0  0  0  0  0  0
   10.0285  -39.1452    3.4075 O   0  0  0  0  0  0  0  0  0  0  0  0
   11.5147  -37.1058    4.0747 O   0  0  0  0  0  0  0  0  0  0  0  0
   11.7964  -39.5807    5.3254 O   0  0  0  0  0  0  0  0  0  0  0  0
   12.7314  -40.3169    4.1026 P   0  0  0  0  0  0  0  0  0  0  0  0
   12.8247  -39.2459    2.7966 O   0  0  0  0  0  0  0  0  0  0  0  0
   14.3075  -40.6603    4.6214 O   0  0  0  0  0  0  0  0  0  0  0  0
   11.9747  -41.7746    3.5629 S   0  0  0  0  0  0  0  0  0  0  0  0
 10 11  1  0  0  0
 10 20  1  0  0  0
 10 21  1  0  0  0
 11 12  2  0  0  0
 11 16  1  0  0  0
 12 13  1  0  0  0
 13 14  2  0  0  0
 14 15  1  0  0  0
 15 16  2  0  0  0
 15 19  1  0  0  0
 16 17  1  0  0  0
 17 18  2  0  0  0
 18 19  1  0  0  0
 19  1  1  0  0  0
  1  2  1  0  0  0
  1  6  1  0  0  0
  2  3  1  0  0  0
  3 22  1  0  0  0
  3  4  1  0  0  0
 22 23  1  0  0  0
 23 24  1  0  0  0
 24 25  2  0  0  0
 24 26  1  0  0  0
 24 27  1  0  0  0
 27 28  1  0  0  0
 28 29  2  0  0  0
 28 30  1  0  0  0
 28 31  1  0  0  0
 31 32  1  0  0  0
 32 33  1  0  0  0
 32 34  1  0  0  0
 32 35  2  0  0  0
  4  5  1  0  0  0
  4  6  1  0  0  0
  5  8  1  0  0  0
  6  7  1  0  0  0
  7  9  1  0  0  0
M  CHG 1  26  -1
M  CHG 1  30  -1
M  CHG 1  33  -1
M  CHG 1  34  -1
M  END
> <COMPND>
    ../0-casp/DBelp1.pdb 

> <AUTHOR>
    GENERATED BY OPEN BABEL 3.1.0

> <MASTER>
        0    0    0    0    0    0    0    0   43    0   43    0

> <minimizedAffinity>
-5.38962

> <CNNscore>
0.4234680235

> <CNNaffinity>
4.2950210571

> <CNN_VS>
1.8188040257

> <CNNaffinity_variance>
0.1095632911

$$$$



 35 37  0  0  0  0  0  0  0  0999 V2000
   15.5525  -34.7381    9.1951 C   0  0  0  0  0  0  0  0  0  0  0  0
   14.2406  -34.8301    8.6792 O   0  0  0  0  0  0  0  0  0  0  0  0
   13.9223  -36.1981    8.5638 C   0  0  0  0  0  0  0  0  0  0  0  0
   14.7987  -36.9706    9.5420 C   0  0  0  0  0  0  0  0  0  0  0  0
   15.0554  -38.2743    9.0878 O   0  0  0  0  0  0  0  0  0  0  0  0
   16.0548  -36.1322    9.5840 C   0  0  0  0  0  0  0  0  0  0  0  0
   16.9937  -36.5761    8.6346 O   0  0  0  0  0  0  0  0  0  0  0  0
   14.2440  -38.8099    9.2888 H   0  0  0  0  0  0  0  0  0  0  0  0
   17.5153  -37.3028    9.0654 H   0  0  0  0  0  0  0  0  0  0  0  0
   16.5591  -30.6642   13.6144 N   0  0  0  0  0  0  0  0  0  0  0  0
   16.9794  -31.4505   12.4993 C   0  0  0  0  0  0  0  0  0  0  0  0
   18.2637  -31.3713   12.0388 N   0  0  0  0  0  0  0  0  0  0  0  0
   18.6876  -32.1247   10.9735 C   0  0  0  0  0  0  0  0  0  0  0  0
   17.8286  -32.9832   10.3463 N   0  0  0  0  0  0  0  0  0  0  0  0
   16.5579  -33.0611   10.8061 C   0  0  0  0  0  0  0  0  0  0  0  0
   16.1152  -32.3289   11.8539 C   0  0  0  0  0  0  0  0  0  0  0  0
   14.8214  -32.5972   12.1067 N   0  0  0  0  0  0  0  0  0  0  0  0
   14.5170  -33.5278   11.1589 C   0  0  0  0  0  0  0  0  0  0  0  0
   15.5671  -33.8438   10.3560 N   0  0  0  0  0  0  0  0  0  0  0  0
   15.5820  -30.7298   13.9812 H   0  0  0  0  0  0  0  0  0  0  0  0
   17.2271  -30.0029   14.0712 H   0  0  0  0  0  0  0  0  0  0  0  0
   12.4304  -36.4116    8.8356 C   0  0  0  0  0  0  0  0  0  0  0  0
   11.6976  -36.0664    7.6832 O   0  0  0  0  0  0  0  0  0  0  0  0
   10.4772  -37.2345    7.4448 P   0  0  0  0  0  0  0  0  0  0  0  0
    9.1877  -36.7614    8.0775 O   0  0  0  0  0  0  0  0  0  0  0  0
   10.9413  -38.6756    8.2013 O   0  0  0  0  0  0  0  0  0  0  0  0
   10.2076  -37.4912    5.7818 O   0  0  0  0  0  0  0  0  0  0  0  0
   11.7145  -37.4070    4.9928 P   0  0  0  0  0  0  0  0  0  0  0  0
   11.5978  -38.0392    3.6231 O   0  0  0  0  0  0  0  0  0  0  0  0
   12.1127  -35.7724    4.8101 O   0  0  0  0  0  0  0  0  0  0  0  0
   12.9067  -38.2049    5.9150 O   0  0  0  0  0  0  0  0  0  0  0  0
   14.3914  -38.1217    5.0781 P   0  0  0  0  0  0  0  0  0  0  0  0
   14.2917  -36.8594    3.9565 O   0  0  0  0  0  0  0  0  0  0  0  0
   15.6941  -37.8088    6.1155 O   0  0  0  0  0  0  0  0  0  0  0  0
   14.6815  -39.5947    4.2210 S   0  0  0  0  0  0  0  0  0  0  0  0
 10 11  1  0  0  0
 10 20  1  0  0  0
 10 21  1  0  0  0
 11 12  2  0  0  0
 11 16  1  0  0  0
 12 13  1  0  0  0
 13 14  2  0  0  0
 14 15  1  0  0  0
 15 16  2  0  0  0
 15 19  1  0  0  0
 16 17  1  0  0  0
 17 18  2  0  0  0
 18 19  1  0  0  0
 19  1  1  0  0  0
  1  2  1  0  0  0
  1  6  1  0  0  0
  2  3  1  0  0  0
  3 22  1  0  0  0
  3  4  1  0  0  0
 22 23  1  0  0  0
 23 24  1  0  0  0
 24 25  2  0  0  0
 24 26  1  0  0  0
 24 27  1  0  0  0
 27 28  1  0  0  0
 28 29  2  0  0  0
 28 30  1  0  0  0
 28 31  1  0  0  0
 31 32  1  0  0  0
 32 33  1  0  0  0
 32 34  1  0  0  0
 32 35  2  0  0  0
  4  5  1  0  0  0
  4  6  1  0  0  0
  5  8  1  0  0  0
  6  7  1  0  0  0
  7  9  1  0  0  0
M  CHG 1  26  -1
M  CHG 1  30  -1
M  CHG 1  33  -1
M  CHG 1  34  -1
M  END
> <COMPND>
    ../0-casp/DBelp1.pdb 

> <AUTHOR>
    GENERATED BY OPEN BABEL 3.1.0

> <MASTER>
        0    0    0    0    0    0    0    0   43    0   43    0

> <minimizedAffinity>
-5.06659

> <CNNscore>
0.3927972317

> <CNNaffinity>
4.2788147926

> <CNN_VS>
1.6807066202

> <CNNaffinity_variance>
0.1232300028

$$$$



 35 37  0  0  0  0  0  0  0  0999 V2000
   -5.3045   10.5276   33.7757 C   0  0  0  0  0  0  0  0  0  0  0  0
   -4.8300    9.4950   34.6150 O   0  0  0  0  0  0  0  0  0  0  0  0
   -5.8137    9.2562   35.5956 C   0  0  0  0  0  0  0  0  0  0  0  0
   -7.1543    9.7245   35.0431 C   0  0  0  0  0  0  0  0  0  0  0  0
   -8.0177   10.1437   36.0679 O   0  0  0  0  0  0  0  0  0  0  0  0
   -6.7520   10.8694   34.1432 C   0  0  0  0  0  0  0  0  0  0  0  0
   -6.7855   12.0946   34.8342 O   0  0  0  0  0  0  0  0  0  0  0  0
   -8.3973    9.3211   36.4737 H   0  0  0  0  0  0  0  0  0  0  0  0
   -7.7176   12.4316   34.7752 H   0  0  0  0  0  0  0  0  0  0  0  0
   -4.3672    9.7049   27.8105 N   0  0  0  0  0  0  0  0  0  0  0  0
   -4.3737   10.5081   28.9908 C   0  0  0  0  0  0  0  0  0  0  0  0
   -3.9929   11.8196   28.9401 N   0  0  0  0  0  0  0  0  0  0  0  0
   -4.0000   12.6087   30.0623 C   0  0  0  0  0  0  0  0  0  0  0  0
   -4.3968   12.0977   31.2664 N   0  0  0  0  0  0  0  0  0  0  0  0
   -4.7756   10.7990   31.3130 C   0  0  0  0  0  0  0  0  0  0  0  0
   -4.7771   10.0001   30.2214 C   0  0  0  0  0  0  0  0  0  0  0  0
   -5.1984    8.7628   30.5400 N   0  0  0  0  0  0  0  0  0  0  0  0
   -5.4503    8.8661   31.8753 C   0  0  0  0  0  0  0  0  0  0  0  0
   -5.2148   10.1081   32.3744 N   0  0  0  0  0  0  0  0  0  0  0  0
   -4.6706    8.7046   27.8387 H   0  0  0  0  0  0  0  0  0  0  0  0
   -4.0465   10.1104   26.9022 H   0  0  0  0  0  0  0  0  0  0  0  0
   -5.8315    7.7702   35.9659 C   0  0  0  0  0  0  0  0  0  0  0  0
   -7.1398    7.4029   36.3366 O   0  0  0  0  0  0  0  0  0  0  0  0
   -7.2249    5.7008   36.4151 P   0  0  0  0  0  0  0  0  0  0  0  0
   -6.9479    5.2408   37.8289 O   0  0  0  0  0  0  0  0  0  0  0  0
   -6.0386    5.0445   35.4021 O   0  0  0  0  0  0  0  0  0  0  0  0
   -8.7727    5.1547   35.9565 O   0  0  0  0  0  0  0  0  0  0  0  0
   -8.6016    3.5839   35.3214 P   0  0  0  0  0  0  0  0  0  0  0  0
   -7.8842    3.6576   33.9913 O   0  0  0  0  0  0  0  0  0  0  0  0
   -7.6588    2.6875   36.4039 O   0  0  0  0  0  0  0  0  0  0  0  0
  -10.1323    2.8567   35.1304 O   0  0  0  0  0  0  0  0  0  0  0  0
   -9.9941    1.5794   34.0074 P   0  0  0  0  0  0  0  0  0  0  0  0
  -10.0449    2.2408   32.4513 O   0  0  0  0  0  0  0  0  0  0  0  0
   -8.5363    0.7327   34.1773 O   0  0  0  0  0  0  0  0  0  0  0  0
  -11.3186    0.4818   34.1797 S   0  0  0  0  0  0  0  0  0  0  0  0
 10 11  1  0  0  0
 10 20  1  0  0  0
 10 21  1  0  0  0
 11 12  2  0  0  0
 11 16  1  0  0  0
 12 13  1  0  0  0
 13 14  2  0  0  0
 14 15  1  0  0  0
 15 16  2  0  0  0
 15 19  1  0  0  0
 16 17  1  0  0  0
 17 18  2  0  0  0
 18 19  1  0  0  0
 19  1  1  0  0  0
  1  2  1  0  0  0
  1  6  1  0  0  0
  2  3  1  0  0  0
  3 22  1  0  0  0
  3  4  1  0  0  0
 22 23  1  0  0  0
 23 24  1  0  0  0
 24 25  2  0  0  0
 24 26  1  0  0  0
 24 27  1  0  0  0
 27 28  1  0  0  0
 28 29  2  0  0  0
 28 30  1  0  0  0
 28 31  1  0  0  0
 31 32  1  0  0  0
 32 33  1  0  0  0
 32 34  1  0  0  0
 32 35  2  0  0  0
  4  5  1  0  0  0
  4  6  1  0  0  0
  5  8  1  0  0  0
  6  7  1  0  0  0
  7  9  1  0  0  0
M  CHG 1  26  -1
M  CHG 1  30  -1
M  CHG 1  33  -1
M  CHG 1  34  -1
M  END
> <COMPND>
    ../0-casp/DBelp1.pdb 

> <AUTHOR>
    GENERATED BY OPEN BABEL 3.1.0

> <MASTER>
        0    0    0    0    0    0    0    0   43    0   43    0

> <minimizedAffinity>
-6.45220

> <CNNscore>
0.3732852340

> <CNNaffinity>
4.3644552231

> <CNN_VS>
1.6291866302

> <CNNaffinity_variance>
0.2137158811

$$$$



 35 37  0  0  0  0  0  0  0  0999 V2000
  -16.4330  -11.3749   -6.7648 C   0  0  0  0  0  0  0  0  0  0  0  0
  -16.2072  -12.5879   -6.0768 O   0  0  0  0  0  0  0  0  0  0  0  0
  -16.8466  -12.4937   -4.8244 C   0  0  0  0  0  0  0  0  0  0  0  0
  -17.9617  -11.4617   -4.9404 C   0  0  0  0  0  0  0  0  0  0  0  0
  -18.2072  -10.8257   -3.7128 O   0  0  0  0  0  0  0  0  0  0  0  0
  -17.4108  -10.5034   -5.9701 C   0  0  0  0  0  0  0  0  0  0  0  0
  -16.7102   -9.4477   -5.3580 O   0  0  0  0  0  0  0  0  0  0  0  0
  -18.7540  -11.4534   -3.1721 H   0  0  0  0  0  0  0  0  0  0  0  0
  -17.3811   -8.7518   -5.1314 H   0  0  0  0  0  0  0  0  0  0  0  0
  -18.2049  -11.5748  -12.5923 N   0  0  0  0  0  0  0  0  0  0  0  0
  -17.7028  -10.8878  -11.4458 C   0  0  0  0  0  0  0  0  0  0  0  0
  -17.4019   -9.5564  -11.5110 N   0  0  0  0  0  0  0  0  0  0  0  0
  -16.9257   -8.8780  -10.4178 C   0  0  0  0  0  0  0  0  0  0  0  0
  -16.7448   -9.5233   -9.2264 N   0  0  0  0  0  0  0  0  0  0  0  0
  -17.0459  -10.8415   -9.1644 C   0  0  0  0  0  0  0  0  0  0  0  0
  -17.5161  -11.5330  -10.2276 C   0  0  0  0  0  0  0  0  0  0  0  0
  -17.7365  -12.8184   -9.8972 N   0  0  0  0  0  0  0  0  0  0  0  0
  -17.3766  -12.8566   -8.5834 C   0  0  0  0  0  0  0  0  0  0  0  0
  -16.9632  -11.6547   -8.1020 N   0  0  0  0  0  0  0  0  0  0  0  0
  -18.4507  -12.5902  -12.5463 H   0  0  0  0  0  0  0  0  0  0  0  0
  -18.3225  -11.0669  -13.4980 H   0  0  0  0  0  0  0  0  0  0  0  0
  -17.3758  -13.8679   -4.4039 C   0  0  0  0  0  0  0  0  0  0  0  0
  -16.5562  -14.3847   -3.3814 O   0  0  0  0  0  0  0  0  0  0  0  0
  -17.4967  -14.5642   -1.9694 P   0  0  0  0  0  0  0  0  0  0  0  0
  -18.2992  -15.8435   -2.0502 O   0  0  0  0  0  0  0  0  0  0  0  0
  -18.5775  -13.2664   -1.8609 O   0  0  0  0  0  0  0  0  0  0  0  0
  -16.5005  -14.6308   -0.5883 O   0  0  0  0  0  0  0  0  0  0  0  0
  -15.2324  -13.5157   -0.8090 P   0  0  0  0  0  0  0  0  0  0  0  0
  -14.3153  -14.0118   -1.9054 O   0  0  0  0  0  0  0  0  0  0  0  0
  -15.9152  -12.0436   -1.2896 O   0  0  0  0  0  0  0  0  0  0  0  0
  -14.3647  -13.3163    0.6455 O   0  0  0  0  0  0  0  0  0  0  0  0
  -13.4157  -11.9032    0.5263 P   0  0  0  0  0  0  0  0  0  0  0  0
  -12.9045  -11.7480   -1.0786 O   0  0  0  0  0  0  0  0  0  0  0  0
  -14.2862  -10.5106    0.9436 O   0  0  0  0  0  0  0  0  0  0  0  0
  -12.0186  -12.0306    1.5366 S   0  0  0  0  0  0  0  0  0  0  0  0
 10 11  1  0  0  0
 10 20  1  0  0  0
 10 21  1  0  0  0
 11 12  2  0  0  0
 11 16  1  0  0  0
 12 13  1  0  0  0
 13 14  2  0  0  0
 14 15  1  0  0  0
 15 16  2  0  0  0
 15 19  1  0  0  0
 16 17  1  0  0  0
 17 18  2  0  0  0
 18 19  1  0  0  0
 19  1  1  0  0  0
  1  2  1  0  0  0
  1  6  1  0  0  0
  2  3  1  0  0  0
  3 22  1  0  0  0
  3  4  1  0  0  0
 22 23  1  0  0  0
 23 24  1  0  0  0
 24 25  2  0  0  0
 24 26  1  0  0  0
 24 27  1  0  0  0
 27 28  1  0  0  0
 28 29  2  0  0  0
 28 30  1  0  0  0
 28 31  1  0  0  0
 31 32  1  0  0  0
 32 33  1  0  0  0
 32 34  1  0  0  0
 32 35  2  0  0  0
  4  5  1  0  0  0
  4  6  1  0  0  0
  5  8  1  0  0  0
  6  7  1  0  0  0
  7  9  1  0  0  0
M  CHG 1  26  -1
M  CHG 1  30  -1
M  CHG 1  33  -1
M  CHG 1  34  -1
M  END
> <COMPND>
    ../0-casp/DBelp1.pdb 

> <AUTHOR>
    GENERATED BY OPEN BABEL 3.1.0

> <MASTER>
        0    0    0    0    0    0    0    0   43    0   43    0

> <minimizedAffinity>
-6.53555

> <CNNscore>
0.3606761694

> <CNNaffinity>
4.5423851013

> <CNN_VS>
1.6383301020

> <CNNaffinity_variance>
0.3118398786

$$$$



 35 37  0  0  0  0  0  0  0  0999 V2000
  -14.3786   -8.6100   -7.4769 C   0  0  0  0  0  0  0  0  0  0  0  0
  -14.4637   -9.8551   -6.8148 O   0  0  0  0  0  0  0  0  0  0  0  0
  -15.3389   -9.6982   -5.7214 C   0  0  0  0  0  0  0  0  0  0  0  0
  -16.2607   -8.5222   -6.0199 C   0  0  0  0  0  0  0  0  0  0  0  0
  -16.6793   -7.8817   -4.8425 O   0  0  0  0  0  0  0  0  0  0  0  0
  -15.3833   -7.6286   -6.8648 C   0  0  0  0  0  0  0  0  0  0  0  0
  -14.6999   -6.6897   -6.0703 O   0  0  0  0  0  0  0  0  0  0  0  0
  -17.4055   -8.4392   -4.4587 H   0  0  0  0  0  0  0  0  0  0  0  0
  -15.3083   -5.9133   -5.9568 H   0  0  0  0  0  0  0  0  0  0  0  0
  -14.6782   -8.6261  -13.5637 N   0  0  0  0  0  0  0  0  0  0  0  0
  -14.2523   -8.0696  -12.3198 C   0  0  0  0  0  0  0  0  0  0  0  0
  -13.4959   -6.9318  -12.2911 N   0  0  0  0  0  0  0  0  0  0  0  0
  -13.0840   -6.3784  -11.1052 C   0  0  0  0  0  0  0  0  0  0  0  0
  -13.4284   -6.9550   -9.9147 N   0  0  0  0  0  0  0  0  0  0  0  0
  -14.1796   -8.0806   -9.9463 C   0  0  0  0  0  0  0  0  0  0  0  0
  -14.5978   -8.6460  -11.1018 C   0  0  0  0  0  0  0  0  0  0  0  0
  -15.3277   -9.7485  -10.8530 N   0  0  0  0  0  0  0  0  0  0  0  0
  -15.3253   -9.8092   -9.4916 C   0  0  0  0  0  0  0  0  0  0  0  0
  -14.6416   -8.7902   -8.9072 N   0  0  0  0  0  0  0  0  0  0  0  0
  -15.2690   -9.4885  -13.5932 H   0  0  0  0  0  0  0  0  0  0  0  0
  -14.3922   -8.1784  -14.4636 H   0  0  0  0  0  0  0  0  0  0  0  0
  -16.1185  -10.9953   -5.4866 C   0  0  0  0  0  0  0  0  0  0  0  0
  -15.9735  -11.3833   -4.1402 O   0  0  0  0  0  0  0  0  0  0  0  0
  -17.4743  -11.1869   -3.3532 P   0  0  0  0  0  0  0  0  0  0  0  0
  -18.4405  -10.4694   -4.2690 O   0  0  0  0  0  0  0  0  0  0  0  0
  -17.2491  -10.2366   -1.9709 O   0  0  0  0  0  0  0  0  0  0  0  0
  -18.1375  -12.7007   -2.9375 O   0  0  0  0  0  0  0  0  0  0  0  0
  -17.7265  -13.0196   -1.3159 P   0  0  0  0  0  0  0  0  0  0  0  0
  -18.6008  -12.1859   -0.4051 O   0  0  0  0  0  0  0  0  0  0  0  0
  -18.0290  -14.6578   -1.0176 O   0  0  0  0  0  0  0  0  0  0  0  0
  -16.0803  -12.6652   -1.0457 O   0  0  0  0  0  0  0  0  0  0  0  0
  -15.7811  -12.7062    0.6337 P   0  0  0  0  0  0  0  0  0  0  0  0
  -16.8467  -13.8202    1.3298 O   0  0  0  0  0  0  0  0  0  0  0  0
  -14.1974  -13.1920    0.9898 O   0  0  0  0  0  0  0  0  0  0  0  0
  -16.0762  -11.1537    1.3347 S   0  0  0  0  0  0  0  0  0  0  0  0
 10 11  1  0  0  0
 10 20  1  0  0  0
 10 21  1  0  0  0
 11 12  2  0  0  0
 11 16  1  0  0  0
 12 13  1  0  0  0
 13 14  2  0  0  0
 14 15  1  0  0  0
 15 16  2  0  0  0
 15 19  1  0  0  0
 16 17  1  0  0  0
 17 18  2  0  0  0
 18 19  1  0  0  0
 19  1  1  0  0  0
  1  2  1  0  0  0
  1  6  1  0  0  0
  2  3  1  0  0  0
  3 22  1  0  0  0
  3  4  1  0  0  0
 22 23  1  0  0  0
 23 24  1  0  0  0
 24 25  2  0  0  0
 24 26  1  0  0  0
 24 27  1  0  0  0
 27 28  1  0  0  0
 28 29  2  0  0  0
 28 30  1  0  0  0
 28 31  1  0  0  0
 31 32  1  0  0  0
 32 33  1  0  0  0
 32 34  1  0  0  0
 32 35  2  0  0  0
  4  5  1  0  0  0
  4  6  1  0  0  0
  5  8  1  0  0  0
  6  7  1  0  0  0
  7  9  1  0  0  0
M  CHG 1  26  -1
M  CHG 1  30  -1
M  CHG 1  33  -1
M  CHG 1  34  -1
M  END
> <COMPND>
    ../0-casp/DBelp1.pdb 

> <AUTHOR>
    GENERATED BY OPEN BABEL 3.1.0

> <MASTER>
        0    0    0    0    0    0    0    0   43    0   43    0

> <minimizedAffinity>
-6.26670

> <CNNscore>
0.3519467115

> <CNNaffinity>
4.4764661789

> <CNN_VS>
1.5754776001

> <CNNaffinity_variance>
0.2770511806

$$$$



 35 37  0  0  0  0  0  0  0  0999 V2000
  -17.7475  -11.7565   -7.1076 C   0  0  0  0  0  0  0  0  0  0  0  0
  -17.2022  -12.8517   -6.4013 O   0  0  0  0  0  0  0  0  0  0  0  0
  -16.8626  -12.4003   -5.1101 C   0  0  0  0  0  0  0  0  0  0  0  0
  -17.7176  -11.1785   -4.7973 C   0  0  0  0  0  0  0  0  0  0  0  0
  -17.0634  -10.3013   -3.9174 O   0  0  0  0  0  0  0  0  0  0  0  0
  -17.9146  -10.5624   -6.1625 C   0  0  0  0  0  0  0  0  0  0  0  0
  -16.9215   -9.6036   -6.4352 O   0  0  0  0  0  0  0  0  0  0  0  0
  -17.1621  -10.6858   -3.0075 H   0  0  0  0  0  0  0  0  0  0  0  0
  -17.2380   -8.7454   -6.0491 H   0  0  0  0  0  0  0  0  0  0  0  0
  -22.5162  -13.6940  -10.3705 N   0  0  0  0  0  0  0  0  0  0  0  0
  -21.1397  -13.3424  -10.2286 C   0  0  0  0  0  0  0  0  0  0  0  0
  -20.2880  -13.4285  -11.2937 N   0  0  0  0  0  0  0  0  0  0  0  0
  -18.9640  -13.0877  -11.1782 C   0  0  0  0  0  0  0  0  0  0  0  0
  -18.4638  -12.6453   -9.9856 N   0  0  0  0  0  0  0  0  0  0  0  0
  -19.3104  -12.5589   -8.9330 C   0  0  0  0  0  0  0  0  0  0  0  0
  -20.6193  -12.8892   -9.0208 C   0  0  0  0  0  0  0  0  0  0  0  0
  -21.2339  -12.7094   -7.8376 N   0  0  0  0  0  0  0  0  0  0  0  0
  -20.2260  -12.2528   -7.0421 C   0  0  0  0  0  0  0  0  0  0  0  0
  -19.0375  -12.1355   -7.6908 N   0  0  0  0  0  0  0  0  0  0  0  0
  -23.1771  -13.6172   -9.5636 H   0  0  0  0  0  0  0  0  0  0  0  0
  -22.8761  -14.0439  -11.2871 H   0  0  0  0  0  0  0  0  0  0  0  0
  -17.0720  -13.5252   -4.0921 C   0  0  0  0  0  0  0  0  0  0  0  0
  -16.2972  -13.2602   -2.9460 O   0  0  0  0  0  0  0  0  0  0  0  0
  -17.3031  -13.3701   -1.5725 P   0  0  0  0  0  0  0  0  0  0  0  0
  -17.5844  -14.8230   -1.2611 O   0  0  0  0  0  0  0  0  0  0  0  0
  -18.7752  -12.6052   -1.9075 O   0  0  0  0  0  0  0  0  0  0  0  0
  -16.5522  -12.6569   -0.2191 O   0  0  0  0  0  0  0  0  0  0  0  0
  -15.5481  -13.8318    0.4962 P   0  0  0  0  0  0  0  0  0  0  0  0
  -16.3932  -14.7747    1.3246 O   0  0  0  0  0  0  0  0  0  0  0  0
  -14.8086  -14.7082   -0.7485 O   0  0  0  0  0  0  0  0  0  0  0  0
  -14.3672  -13.0814    1.4713 O   0  0  0  0  0  0  0  0  0  0  0  0
  -13.1844  -12.3843    0.4581 P   0  0  0  0  0  0  0  0  0  0  0  0
  -11.9394  -13.5107    0.2523 O   0  0  0  0  0  0  0  0  0  0  0  0
  -13.8022  -11.9904   -1.0697 O   0  0  0  0  0  0  0  0  0  0  0  0
  -12.5240  -10.9657    1.1930 S   0  0  0  0  0  0  0  0  0  0  0  0
 10 11  1  0  0  0
 10 20  1  0  0  0
 10 21  1  0  0  0
 11 12  2  0  0  0
 11 16  1  0  0  0
 12 13  1  0  0  0
 13 14  2  0  0  0
 14 15  1  0  0  0
 15 16  2  0  0  0
 15 19  1  0  0  0
 16 17  1  0  0  0
 17 18  2  0  0  0
 18 19  1  0  0  0
 19  1  1  0  0  0
  1  2  1  0  0  0
  1  6  1  0  0  0
  2  3  1  0  0  0
  3 22  1  0  0  0
  3  4  1  0  0  0
 22 23  1  0  0  0
 23 24  1  0  0  0
 24 25  2  0  0  0
 24 26  1  0  0  0
 24 27  1  0  0  0
 27 28  1  0  0  0
 28 29  2  0  0  0
 28 30  1  0  0  0
 28 31  1  0  0  0
 31 32  1  0  0  0
 32 33  1  0  0  0
 32 34  1  0  0  0
 32 35  2  0  0  0
  4  5  1  0  0  0
  4  6  1  0  0  0
  5  8  1  0  0  0
  6  7  1  0  0  0
  7  9  1  0  0  0
M  CHG 1  26  -1
M  CHG 1  30  -1
M  CHG 1  33  -1
M  CHG 1  34  -1
M  END
> <COMPND>
    ../0-casp/DBelp1.pdb 

> <AUTHOR>
    GENERATED BY OPEN BABEL 3.1.0

> <MASTER>
        0    0    0    0    0    0    0    0   43    0   43    0

> <minimizedAffinity>
-6.41405

> <CNNscore>
0.3317615390

> <CNNaffinity>
4.6864151955

> <CNN_VS>
1.5547723770

> <CNNaffinity_variance>
0.2685911059

$$$$



 35 37  0  0  0  0  0  0  0  0999 V2000
  -16.1288  -10.6054   -7.1310 C   0  0  0  0  0  0  0  0  0  0  0  0
  -16.2287  -11.9496   -6.7082 O   0  0  0  0  0  0  0  0  0  0  0  0
  -17.1125  -11.9874   -5.6111 C   0  0  0  0  0  0  0  0  0  0  0  0
  -18.0231  -10.7687   -5.6965 C   0  0  0  0  0  0  0  0  0  0  0  0
  -18.4475  -10.3504   -4.4251 O   0  0  0  0  0  0  0  0  0  0  0  0
  -17.1317   -9.7435   -6.3574 C   0  0  0  0  0  0  0  0  0  0  0  0
  -16.4486   -8.9715   -5.3996 O   0  0  0  0  0  0  0  0  0  0  0  0
  -19.1811  -10.9622   -4.1551 H   0  0  0  0  0  0  0  0  0  0  0  0
  -17.0524   -8.2237   -5.1507 H   0  0  0  0  0  0  0  0  0  0  0  0
  -16.1002  -10.0823  -13.2026 N   0  0  0  0  0  0  0  0  0  0  0  0
  -15.4938   -9.9397  -11.9180 C   0  0  0  0  0  0  0  0  0  0  0  0
  -14.2307   -9.4318  -11.7992 N   0  0  0  0  0  0  0  0  0  0  0  0
  -13.6348   -9.2803  -10.5728 C   0  0  0  0  0  0  0  0  0  0  0  0
  -14.2992   -9.6323   -9.4312 N   0  0  0  0  0  0  0  0  0  0  0  0
  -15.5510  -10.1329   -9.5520 C   0  0  0  0  0  0  0  0  0  0  0  0
  -16.1603  -10.2926  -10.7491 C   0  0  0  0  0  0  0  0  0  0  0  0
  -17.3946  -10.8031  -10.5884 N   0  0  0  0  0  0  0  0  0  0  0  0
  -17.4905  -10.9366   -9.2356 C   0  0  0  0  0  0  0  0  0  0  0  0
  -16.3803  -10.5190   -8.5721 N   0  0  0  0  0  0  0  0  0  0  0  0
  -17.0716  -10.4570  -13.3005 H   0  0  0  0  0  0  0  0  0  0  0  0
  -15.5701   -9.8210  -14.0645 H   0  0  0  0  0  0  0  0  0  0  0  0
  -17.9036  -13.2987   -5.6230 C   0  0  0  0  0  0  0  0  0  0  0  0
  -17.2946  -14.2128   -4.7411 O   0  0  0  0  0  0  0  0  0  0  0  0
  -18.1882  -14.2439   -3.2882 P   0  0  0  0  0  0  0  0  0  0  0  0
  -19.5364  -14.8841   -3.5320 O   0  0  0  0  0  0  0  0  0  0  0  0
  -18.4428  -12.6543   -2.7661 O   0  0  0  0  0  0  0  0  0  0  0  0
  -17.3653  -15.1411   -2.0957 O   0  0  0  0  0  0  0  0  0  0  0  0
  -16.1905  -14.1237   -1.3994 P   0  0  0  0  0  0  0  0  0  0  0  0
  -15.1033  -14.9700   -0.7740 O   0  0  0  0  0  0  0  0  0  0  0  0
  -15.5141  -13.1901   -2.6383 O   0  0  0  0  0  0  0  0  0  0  0  0
  -16.9068  -13.1155   -0.2252 O   0  0  0  0  0  0  0  0  0  0  0  0
  -15.9605  -11.7046   -0.0657 P   0  0  0  0  0  0  0  0  0  0  0  0
  -14.3336  -12.1656   -0.0239 O   0  0  0  0  0  0  0  0  0  0  0  0
  -16.1773  -10.6384   -1.3648 O   0  0  0  0  0  0  0  0  0  0  0  0
  -16.3380  -10.8918    1.4126 S   0  0  0  0  0  0  0  0  0  0  0  0
 10 11  1  0  0  0
 10 20  1  0  0  0
 10 21  1  0  0  0
 11 12  2  0  0  0
 11 16  1  0  0  0
 12 13  1  0  0  0
 13 14  2  0  0  0
 14 15  1  0  0  0
 15 16  2  0  0  0
 15 19  1  0  0  0
 16 17  1  0  0  0
 17 18  2  0  0  0
 18 19  1  0  0  0
 19  1  1  0  0  0
  1  2  1  0  0  0
  1  6  1  0  0  0
  2  3  1  0  0  0
  3 22  1  0  0  0
  3  4  1  0  0  0
 22 23  1  0  0  0
 23 24  1  0  0  0
 24 25  2  0  0  0
 24 26  1  0  0  0
 24 27  1  0  0  0
 27 28  1  0  0  0
 28 29  2  0  0  0
 28 30  1  0  0  0
 28 31  1  0  0  0
 31 32  1  0  0  0
 32 33  1  0  0  0
 32 34  1  0  0  0
 32 35  2  0  0  0
  4  5  1  0  0  0
  4  6  1  0  0  0
  5  8  1  0  0  0
  6  7  1  0  0  0
  7  9  1  0  0  0
M  CHG 1  26  -1
M  CHG 1  30  -1
M  CHG 1  33  -1
M  CHG 1  34  -1
M  END
> <COMPND>
    ../0-casp/DBelp1.pdb 

> <AUTHOR>
    GENERATED BY OPEN BABEL 3.1.0

> <MASTER>
        0    0    0    0    0    0    0    0   43    0   43    0

> <minimizedAffinity>
-6.79497

> <CNNscore>
0.3282442391

> <CNNaffinity>
4.4768648148

> <CNN_VS>
1.4695050716

> <CNNaffinity_variance>
0.1610786915

$$$$



 35 37  0  0  0  0  0  0  0  0999 V2000
   14.2867  -32.2217    8.1614 C   0  0  0  0  0  0  0  0  0  0  0  0
   14.2376  -32.0470    9.5624 O   0  0  0  0  0  0  0  0  0  0  0  0
   15.5459  -32.2132   10.0593 C   0  0  0  0  0  0  0  0  0  0  0  0
   16.5218  -31.9189    8.9267 C   0  0  0  0  0  0  0  0  0  0  0  0
   17.7156  -32.6439    9.0714 O   0  0  0  0  0  0  0  0  0  0  0  0
   15.7438  -32.3543    7.7070 C   0  0  0  0  0  0  0  0  0  0  0  0
   16.0158  -33.6964    7.3834 O   0  0  0  0  0  0  0  0  0  0  0  0
   18.2576  -32.1655    9.7516 H   0  0  0  0  0  0  0  0  0  0  0  0
   16.8279  -33.6946    6.8123 H   0  0  0  0  0  0  0  0  0  0  0  0
   11.2941  -28.2321    4.6589 N   0  0  0  0  0  0  0  0  0  0  0  0
   11.8940  -29.5058    4.8963 C   0  0  0  0  0  0  0  0  0  0  0  0
   11.8804  -30.4706    3.9286 N   0  0  0  0  0  0  0  0  0  0  0  0
   12.4583  -31.6975    4.1360 C   0  0  0  0  0  0  0  0  0  0  0  0
   13.0709  -31.9832    5.3241 N   0  0  0  0  0  0  0  0  0  0  0  0
   13.0848  -31.0246    6.2797 C   0  0  0  0  0  0  0  0  0  0  0  0
   12.5219  -29.8077    6.1003 C   0  0  0  0  0  0  0  0  0  0  0  0
   12.6784  -29.0465    7.1985 N   0  0  0  0  0  0  0  0  0  0  0  0
   13.3651  -29.8703    8.0394 C   0  0  0  0  0  0  0  0  0  0  0  0
   13.6421  -31.0854    7.4973 N   0  0  0  0  0  0  0  0  0  0  0  0
   11.3129  -27.4840    5.3893 H   0  0  0  0  0  0  0  0  0  0  0  0
   10.8179  -28.0383    3.7491 H   0  0  0  0  0  0  0  0  0  0  0  0
   15.7676  -31.2931   11.2634 C   0  0  0  0  0  0  0  0  0  0  0  0
   16.2968  -32.0474   12.3289 O   0  0  0  0  0  0  0  0  0  0  0  0
   17.8428  -31.4365   12.7122 P   0  0  0  0  0  0  0  0  0  0  0  0
   18.3880  -32.1536   13.9269 O   0  0  0  0  0  0  0  0  0  0  0  0
   17.7062  -29.7913   13.0849 O   0  0  0  0  0  0  0  0  0  0  0  0
   18.9199  -31.6683   11.4120 O   0  0  0  0  0  0  0  0  0  0  0  0
   20.4942  -31.3532   11.9799 P   0  0  0  0  0  0  0  0  0  0  0  0
   20.9550  -32.5076   12.8427 O   0  0  0  0  0  0  0  0  0  0  0  0
   21.5150  -31.2320   10.6355 O   0  0  0  0  0  0  0  0  0  0  0  0
   20.5180  -29.8996   12.8714 O   0  0  0  0  0  0  0  0  0  0  0  0
   22.1144  -29.2972   12.8917 P   0  0  0  0  0  0  0  0  0  0  0  0
   22.3330  -28.4384   14.3325 O   0  0  0  0  0  0  0  0  0  0  0  0
   23.2672  -30.5376   12.8326 O   0  0  0  0  0  0  0  0  0  0  0  0
   22.3658  -28.2166   11.5659 S   0  0  0  0  0  0  0  0  0  0  0  0
 10 11  1  0  0  0
 10 20  1  0  0  0
 10 21  1  0  0  0
 11 12  2  0  0  0
 11 16  1  0  0  0
 12 13  1  0  0  0
 13 14  2  0  0  0
 14 15  1  0  0  0
 15 16  2  0  0  0
 15 19  1  0  0  0
 16 17  1  0  0  0
 17 18  2  0  0  0
 18 19  1  0  0  0
 19  1  1  0  0  0
  1  2  1  0  0  0
  1  6  1  0  0  0
  2  3  1  0  0  0
  3 22  1  0  0  0
  3  4  1  0  0  0
 22 23  1  0  0  0
 23 24  1  0  0  0
 24 25  2  0  0  0
 24 26  1  0  0  0
 24 27  1  0  0  0
 27 28  1  0  0  0
 28 29  2  0  0  0
 28 30  1  0  0  0
 28 31  1  0  0  0
 31 32  1  0  0  0
 32 33  1  0  0  0
 32 34  1  0  0  0
 32 35  2  0  0  0
  4  5  1  0  0  0
  4  6  1  0  0  0
  5  8  1  0  0  0
  6  7  1  0  0  0
  7  9  1  0  0  0
M  CHG 1  26  -1
M  CHG 1  30  -1
M  CHG 1  33  -1
M  CHG 1  34  -1
M  END
> <COMPND>
    ../0-casp/DBelp1.pdb 

> <AUTHOR>
    GENERATED BY OPEN BABEL 3.1.0

> <MASTER>
        0    0    0    0    0    0    0    0   43    0   43    0

> <minimizedAffinity>
-6.58110

> <CNNscore>
0.3153494596

> <CNNaffinity>
4.3612651825

> <CNN_VS>
1.3753225803

> <CNNaffinity_variance>
0.2532478869

$$$$
